Version 4
SHEET 1 880 680
WIRE 0 -16 -64 -16
WIRE 128 -16 64 -16
WIRE 208 -16 128 -16
WIRE 336 -16 272 -16
WIRE 464 -16 400 -16
WIRE 544 -16 464 -16
WIRE 672 -16 608 -16
WIRE -64 96 -64 -16
WIRE 128 96 128 -16
WIRE 464 112 464 -16
WIRE 512 112 464 112
WIRE 672 128 672 -16
WIRE 672 128 576 128
WIRE 688 128 672 128
WIRE -480 144 -480 112
WIRE -368 144 -368 112
WIRE 512 144 464 144
WIRE 560 176 560 160
WIRE -64 240 -64 176
WIRE 128 240 128 160
WIRE 464 240 464 144
WIRE -480 256 -480 224
WIRE -368 256 -368 224
FLAG -480 256 0
FLAG -368 256 0
FLAG -480 112 V+
FLAG -368 112 V-
FLAG 464 240 0
FLAG 688 128 OUT
FLAG 128 -16 IN
FLAG 544 160 V-
FLAG 544 96 V+
FLAG -64 240 0
FLAG 128 240 0
SYMBOL voltage -480 128 R0
WINDOW 123 24 126 Left 2
WINDOW 39 24 111 Left 2
SYMATTR InstName V1
SYMATTR Value 15
SYMBOL voltage -368 128 R0
WINDOW 123 24 126 Left 2
WINDOW 39 24 111 Left 2
SYMATTR InstName V2
SYMATTR Value -15
SYMBOL Opamps/UniversalOpamp2 544 128 R0
SYMATTR InstName U1
SYMBOL res2 272 -32 R90
WINDOW 0 0 32 VBottom 2
WINDOW 3 32 32 VTop 2
SYMATTR InstName R1
SYMATTR Value 4.7k
SYMBOL res2 608 -32 R90
WINDOW 0 0 32 VBottom 2
WINDOW 3 32 32 VTop 2
SYMATTR InstName Rf
SYMATTR Value 47k
SYMBOL res2 64 -32 R90
WINDOW 0 0 32 VBottom 2
WINDOW 3 31 32 VTop 2
SYMATTR InstName Rg
SYMATTR Value 25
SYMBOL voltage -64 80 R0
WINDOW 3 -133 204 Left 2
WINDOW 123 -133 232 Left 2
WINDOW 39 0 0 Left 0
SYMATTR Value SINE(0 0.1 1k 0 0 0 200)
SYMATTR Value2 AC 0.1 0
SYMATTR InstName Vg
SYMBOL cap 400 -32 R90
WINDOW 0 0 32 VBottom 2
WINDOW 3 32 32 VTop 2
SYMATTR InstName C1
SYMATTR Value 100µ
SYMBOL res2 144 160 R180
WINDOW 0 36 56 Left 2
WINDOW 3 36 16 Left 2
SYMATTR InstName R3
SYMATTR Value 50
TEXT 408 288 Left 2 !.ac dec 10 1k 1G
