Version 4
SHEET 1 880 680
WIRE 400 -160 320 -160
WIRE 528 -160 464 -160
WIRE -16 -48 -80 -48
WIRE 112 -48 48 -48
WIRE 192 -48 112 -48
WIRE 320 -48 320 -160
WIRE 320 -48 256 -48
WIRE 400 -48 320 -48
WIRE 528 -48 528 -160
WIRE 528 -48 464 -48
WIRE -336 64 -336 32
WIRE -224 64 -224 32
WIRE -80 64 -80 -48
WIRE 320 80 320 -48
WIRE 368 80 320 80
WIRE 528 96 528 -48
WIRE 528 96 432 96
WIRE 544 96 528 96
WIRE 368 112 320 112
WIRE 416 144 416 128
WIRE -336 176 -336 144
WIRE -224 176 -224 144
WIRE -80 208 -80 144
WIRE 320 208 320 112
FLAG -336 176 0
FLAG -224 176 0
FLAG -336 32 V+
FLAG -224 32 V-
FLAG 320 208 0
FLAG 544 96 OUT
FLAG 112 -48 IN
FLAG 400 128 V-
FLAG 400 64 V+
FLAG -80 208 0
FLAG 320 -48 A
SYMBOL voltage -336 48 R0
WINDOW 123 24 126 Left 2
WINDOW 39 24 111 Left 2
SYMATTR InstName V1
SYMATTR Value 15
SYMBOL voltage -224 48 R0
WINDOW 123 24 126 Left 2
WINDOW 39 24 111 Left 2
SYMATTR InstName V2
SYMATTR Value -15
SYMBOL Opamps/UniversalOpamp2 400 96 R0
SYMATTR InstName U1
SYMBOL res2 256 -64 R90
WINDOW 0 0 32 VBottom 2
WINDOW 3 32 32 VTop 2
SYMATTR InstName Rin
SYMATTR Value 56.564k
SYMBOL res2 464 -64 R90
WINDOW 0 0 32 VBottom 2
WINDOW 3 32 32 VTop 2
SYMATTR InstName Rf_pre
SYMATTR Value 696.060k
SYMBOL res2 48 -64 R90
WINDOW 0 0 32 VBottom 2
WINDOW 3 31 32 VTop 2
SYMATTR InstName Rg
SYMATTR Value 25
SYMBOL voltage -80 48 R0
WINDOW 3 -133 204 Left 2
WINDOW 123 0 0 Left 0
WINDOW 39 0 0 Left 0
SYMATTR Value PULSE(0 -1 1u 0 0 5u 1m)
SYMATTR InstName Vg
SYMBOL cap 464 -176 R90
WINDOW 0 0 32 VBottom 2
WINDOW 3 32 32 VTop 2
SYMATTR InstName Cf_pre
SYMATTR Value 222p
TEXT 280 264 Left 2 !.tran 0 5m 0 0.1u
