Version 4
SHEET 1 964 680
WIRE 576 -160 368 -160
WIRE 368 -48 368 -160
WIRE 416 -48 368 -48
WIRE 576 -32 576 -160
WIRE 576 -32 480 -32
WIRE -32 -16 -96 -16
WIRE 128 -16 32 -16
WIRE 256 -16 192 -16
WIRE 416 -16 256 -16
WIRE 576 -16 576 -32
WIRE 656 -16 576 -16
WIRE 800 -16 720 -16
WIRE 896 -16 800 -16
WIRE 464 16 464 0
WIRE 256 80 256 -16
WIRE 800 80 800 -16
WIRE -352 96 -352 64
WIRE -240 96 -240 64
WIRE -96 96 -96 -16
WIRE -352 208 -352 176
WIRE -240 208 -240 176
WIRE -96 240 -96 176
WIRE 256 240 256 144
WIRE 800 240 800 144
FLAG -352 208 0
FLAG -240 208 0
FLAG -352 64 V+
FLAG -240 64 V-
FLAG 448 0 V-
FLAG 448 -64 V+
FLAG -96 240 0
FLAG 256 240 0
FLAG 800 240 0
FLAG 896 -16 OUT
SYMBOL voltage -352 80 R0
WINDOW 123 24 126 Left 2
WINDOW 39 24 111 Left 2
SYMATTR InstName V1
SYMATTR Value 15
SYMBOL voltage -240 80 R0
WINDOW 123 24 126 Left 2
WINDOW 39 24 111 Left 2
SYMATTR InstName V2
SYMATTR Value -15
SYMBOL Opamps/UniversalOpamp2 448 -32 R0
SYMATTR InstName U1
SYMBOL res2 32 -32 R90
WINDOW 0 0 32 VBottom 2
WINDOW 3 31 32 VTop 2
SYMATTR InstName Rg
SYMATTR Value 25
SYMBOL voltage -96 80 R0
WINDOW 3 -133 204 Left 2
WINDOW 123 0 0 Left 0
WINDOW 39 0 0 Left 0
SYMATTR Value PULSE(0 1 0 1u 1u 0.005 0.01)
SYMATTR InstName Vpre
SYMBOL cap 192 -32 R90
WINDOW 0 0 32 VBottom 2
WINDOW 3 32 32 VTop 2
SYMATTR InstName Csh1
SYMATTR Value 120p
SYMBOL res2 272 144 R180
WINDOW 0 36 56 Left 2
WINDOW 3 36 16 Left 2
SYMATTR InstName Rsh1
SYMATTR Value 120k
SYMBOL res2 720 -32 R90
WINDOW 0 0 32 VBottom 2
WINDOW 3 31 32 VTop 2
SYMATTR InstName Rsh2
SYMATTR Value 120k
SYMBOL cap 784 80 R0
SYMATTR InstName Csh2
SYMATTR Value 120p
TEXT 552 296 Left 2 !.tran 0 0.3m 0 0.1u
