Version 4
SHEET 1 880 680
WIRE -448 -384 -448 -416
WIRE -336 -384 -336 -416
WIRE -448 -272 -448 -304
WIRE -336 -272 -336 -304
WIRE -736 -80 -816 -80
WIRE -608 -80 -672 -80
WIRE -1152 32 -1216 32
WIRE -1024 32 -1088 32
WIRE -944 32 -1024 32
WIRE -816 32 -816 -80
WIRE -816 32 -880 32
WIRE -736 32 -816 32
WIRE -608 32 -608 -80
WIRE -608 32 -672 32
WIRE -496 32 -560 32
WIRE -368 32 -432 32
WIRE 0 32 -208 32
WIRE 144 32 144 -32
WIRE 192 32 144 32
WIRE 304 32 256 32
WIRE 432 32 304 32
WIRE 560 32 496 32
WIRE -1216 144 -1216 32
WIRE -208 144 -208 32
WIRE -160 144 -208 144
WIRE 304 144 304 32
WIRE 352 144 304 144
WIRE -816 160 -816 32
WIRE -768 160 -816 160
WIRE 0 160 0 32
WIRE 0 160 -96 160
WIRE 560 160 560 32
WIRE 560 160 416 160
WIRE 592 160 560 160
WIRE -608 176 -608 32
WIRE -608 176 -704 176
WIRE -560 176 -560 32
WIRE -560 176 -608 176
WIRE -496 176 -560 176
WIRE -368 176 -368 32
WIRE -368 176 -432 176
WIRE -320 176 -368 176
WIRE -160 176 -320 176
WIRE 0 176 0 160
WIRE 80 176 0 176
WIRE 224 176 144 176
WIRE 352 176 224 176
WIRE -768 192 -816 192
WIRE -112 208 -112 192
WIRE 400 208 400 192
WIRE -720 224 -720 208
WIRE -320 272 -320 176
WIRE 224 272 224 176
WIRE -1216 288 -1216 224
WIRE -816 288 -816 192
WIRE -320 432 -320 336
WIRE 224 432 224 336
FLAG -448 -272 0
FLAG -336 -272 0
FLAG -448 -416 V+
FLAG -336 -416 V-
FLAG -816 288 0
FLAG -1024 32 IN
FLAG -736 208 V-
FLAG -736 144 V+
FLAG -1216 288 0
FLAG -816 32 A
FLAG -128 192 V-
FLAG -128 128 V+
FLAG -320 432 0
FLAG 224 432 0
FLAG 384 192 V-
FLAG 384 128 V+
FLAG 144 -32 0
FLAG 592 160 OUT
SYMBOL voltage -448 -400 R0
WINDOW 123 24 126 Left 2
WINDOW 39 24 111 Left 2
SYMATTR InstName V1
SYMATTR Value 15
SYMBOL voltage -336 -400 R0
WINDOW 123 24 126 Left 2
WINDOW 39 24 111 Left 2
SYMATTR InstName V2
SYMATTR Value -15
SYMBOL Opamps/UniversalOpamp2 -736 176 R0
SYMATTR InstName U1
SYMBOL res2 -880 16 R90
WINDOW 0 0 32 VBottom 2
WINDOW 3 32 32 VTop 2
SYMATTR InstName Rin
SYMATTR Value 56.564k
SYMBOL res2 -672 16 R90
WINDOW 0 0 32 VBottom 2
WINDOW 3 32 32 VTop 2
SYMATTR InstName Rf_pre
SYMATTR Value 696.060k
SYMBOL res2 -1088 16 R90
WINDOW 0 0 32 VBottom 2
WINDOW 3 31 32 VTop 2
SYMATTR InstName Rg
SYMATTR Value 25
SYMBOL voltage -1216 128 R0
WINDOW 3 24 44 Left 2
WINDOW 123 -133 232 Left 2
WINDOW 39 0 0 Left 0
SYMATTR Value PULSE(0 -1 1u 0 0 5u 1000u)
SYMATTR InstName Vg1
SYMBOL cap -672 -96 R90
WINDOW 0 0 32 VBottom 2
WINDOW 3 32 32 VTop 2
SYMATTR InstName Cf_pre
SYMATTR Value 232p
SYMBOL Opamps/UniversalOpamp2 -128 160 R0
SYMATTR InstName U2
SYMBOL cap -432 160 R90
WINDOW 0 0 32 VBottom 2
WINDOW 3 32 32 VTop 2
SYMATTR InstName Csh1
SYMATTR Value 157p
SYMBOL res2 -304 336 R180
WINDOW 0 36 56 Left 2
WINDOW 3 36 16 Left 2
SYMATTR InstName Rsh1
SYMATTR Value 101k
SYMBOL res2 144 160 R90
WINDOW 0 0 32 VBottom 2
WINDOW 3 31 32 VTop 2
SYMATTR InstName Rsh2
SYMATTR Value 99.9k
SYMBOL cap 208 272 R0
SYMATTR InstName Csh2
SYMATTR Value 159p
SYMBOL res2 -432 16 R90
WINDOW 0 0 32 VBottom 2
WINDOW 3 32 32 VTop 2
SYMATTR InstName Rpz1
SYMATTR Value 1013200
SYMBOL Opamps/UniversalOpamp2 384 160 R0
SYMATTR InstName U3
SYMBOL res2 256 16 R90
WINDOW 0 0 32 VBottom 2
WINDOW 3 31 32 VTop 2
SYMATTR InstName R1a
SYMATTR Value 9982
SYMBOL res2 496 16 R90
WINDOW 0 0 32 VBottom 2
WINDOW 3 31 32 VTop 2
SYMATTR InstName R2a
SYMATTR Value 82393
TEXT -864 376 Left 2 !.tran 0 200u 0 0.1u
