Version 4
SHEET 1 880 680
WIRE 0 16 -64 16
WIRE 128 16 64 16
WIRE 208 16 128 16
WIRE 336 16 272 16
WIRE 416 16 336 16
WIRE 544 16 480 16
WIRE -64 128 -64 16
WIRE 336 144 336 16
WIRE 384 144 336 144
WIRE 544 160 544 16
WIRE 544 160 448 160
WIRE 560 160 544 160
WIRE -480 176 -480 144
WIRE -368 176 -368 144
WIRE 384 176 336 176
WIRE 432 208 432 192
WIRE -64 272 -64 208
WIRE 336 272 336 176
WIRE -480 288 -480 256
WIRE -368 288 -368 256
FLAG -480 288 0
FLAG -368 288 0
FLAG -480 144 V+
FLAG -368 144 V-
FLAG 336 272 0
FLAG 560 160 OUT
FLAG 128 16 IN
FLAG 416 192 V-
FLAG 416 128 V+
FLAG -64 272 0
SYMBOL voltage -480 160 R0
WINDOW 123 24 126 Left 2
WINDOW 39 24 111 Left 2
SYMATTR InstName V1
SYMATTR Value 15
SYMBOL voltage -368 160 R0
WINDOW 123 24 126 Left 2
WINDOW 39 24 111 Left 2
SYMATTR InstName V2
SYMATTR Value -15
SYMBOL Opamps/UniversalOpamp2 416 160 R0
SYMATTR InstName U1
SYMBOL res2 272 0 R90
WINDOW 0 0 32 VBottom 2
WINDOW 3 32 32 VTop 2
SYMATTR InstName R1
SYMATTR Value 8.1k
SYMBOL res2 480 0 R90
WINDOW 0 0 32 VBottom 2
WINDOW 3 32 32 VTop 2
SYMATTR InstName Rf1
SYMATTR Value 82.5k
SYMBOL res2 64 0 R90
WINDOW 0 0 32 VBottom 2
WINDOW 3 31 32 VTop 2
SYMATTR InstName Rg1
SYMATTR Value 25
SYMBOL voltage -64 112 R0
WINDOW 3 -133 204 Left 2
WINDOW 123 0 0 Left 0
WINDOW 39 0 0 Left 0
SYMATTR Value SINE(0 1 1k 0 0 0 200)
SYMATTR InstName Vg1
TEXT 296 328 Left 2 !.tran 0 20m 0 0.5m
